Version 4
SHEET 1 1420 680
WIRE 240 32 240 16
WIRE 80 64 80 48
WIRE 240 128 240 112
WIRE 368 128 240 128
WIRE 384 128 368 128
WIRE 480 128 464 128
WIRE 560 128 544 128
WIRE 640 128 624 128
WIRE 736 128 720 128
WIRE 240 144 240 128
WIRE 288 144 240 144
WIRE 368 144 368 128
WIRE 560 144 560 128
WIRE 624 144 624 128
WIRE 736 144 736 128
WIRE 80 160 80 144
WIRE 288 160 288 144
WIRE 192 224 48 224
WIRE 288 240 288 224
WIRE 288 240 240 240
WIRE 560 240 560 224
WIRE 592 240 560 240
WIRE 624 240 624 224
WIRE 624 240 592 240
WIRE 48 256 48 224
WIRE 240 256 240 240
WIRE 368 256 368 208
WIRE 592 256 592 240
WIRE 736 256 736 208
WIRE 48 352 48 336
FLAG 592 256 0
FLAG 736 256 0
FLAG 368 256 0
FLAG 240 256 0
FLAG 240 16 Vs
FLAG 80 160 0
FLAG 80 48 Vs
FLAG 48 352 0
SYMBOL nmos 192 144 R0
WINDOW 0 56 32 Invisible 2
WINDOW 3 62 9 VRight 0
SYMATTR InstName M1
SYMATTR Value IPW60R031CFD7
SYMBOL ind 256 128 R180
WINDOW 0 36 80 Invisible 2
WINDOW 3 36 40 Left 2
SYMATTR InstName L1
SYMATTR Value {Lc}
SYMBOL cap 352 144 R0
WINDOW 0 24 8 Invisible 2
WINDOW 3 28 51 Left 2
SYMATTR InstName C1
SYMATTR Value {Cp}
SYMBOL ind 368 144 R270
WINDOW 0 32 56 Invisible 2
WINDOW 3 66 54 VBottom 2
SYMATTR InstName L2
SYMATTR Value {L1}
SYMBOL cap 544 112 R90
WINDOW 0 0 32 Invisible 2
WINDOW 3 -37 32 VTop 2
SYMATTR InstName C2
SYMATTR Value {C1}
SYMBOL ind2 544 128 R0
WINDOW 0 -23 44 Invisible 2
WINDOW 3 -16 28 VRight 2
SYMATTR InstName L3
SYMATTR Value {Lp}
SYMATTR Type ind
SYMBOL ind2 640 128 M0
WINDOW 0 -23 83 Invisible 2
WINDOW 3 -15 91 VLeft 2
SYMATTR InstName L4
SYMATTR Value {Ls}
SYMATTR Type ind
SYMBOL ind 736 144 M270
WINDOW 0 32 56 Invisible 2
WINDOW 3 71 55 VBottom 2
SYMATTR InstName L5
SYMATTR Value {L2}
SYMBOL ZZZ\\QUARTZ_CRYSTAL\\CRYSTAL_9_OVERTONE 720 144 R0
WINDOW 40 34 18 Left 0
WINDOW 39 30 1 Left 0
SYMATTR SpiceLine Freq={Freq} C0=11n K=300 Rm1=20 rm3=50 rm5=100 rm7=150 rm9=200
SYMATTR InstName U4
SYMBOL voltage 80 48 R0
WINDOW 123 0 0 Left 0
WINDOW 39 0 0 Left 0
SYMATTR InstName V1
SYMATTR Value {Vs}
SYMBOL voltage 48 240 R0
WINDOW 123 0 0 Left 0
WINDOW 39 0 0 Left 0
SYMATTR InstName V2
SYMATTR Value PULSE(0 15 0 10n 10n {1/Freq/2} {1/freq})
SYMBOL diode 304 224 R180
WINDOW 0 24 64 Invisible 0
WINDOW 3 36 4 VRight 0
SYMATTR InstName D1
SYMATTR Value RFUS20TF6S
TEXT 984 208 Left 2 !K1 L3 L4 1
TEXT -72 408 Left 2 !.param Lp=9.3m Ls=15m Cp=18n L1=1070u L2=500u C1=4.5u Vs=100
TEXT -64 440 Left 2 !.tran 100m startup
TEXT 240 456 Left 2 !.param Lc (2*(pi**2/4+1)*(40/{Freq}))
TEXT 240 496 Left 2 !.param Freq 40k
LINE Normal 592 224 592 224 2
RECTANGLE Normal 640 288 544 112 2
